<?xml version="1.0" encoding="UTF-8"?>

<!-- generated on 2023-11-25 11:54:56 by Eclipse SUMO netedit Version 1.18.0
-->

<additional xmlns:xsi="http://www.w3.org/2001/XMLSchema-instance" xsi:noNamespaceSchemaLocation="http://sumo.dlr.de/xsd/additional_file.xsd">
    <!-- Detectors -->
    <inductionLoop id="testSensor" lane="124812856#0_2" pos="4.00" period="900.00" file="out.xml" friendlyPos="1"/>
    <inductionLoop id="testSensor2" lane="124812856#0_1" pos="10.00" period="900.00" file="out.xml" friendlyPos="1"/>
</additional>
